ECE6613PD/PSAT_14bus_data/d14bus_mdl.m
Bus.con = [ ... 
  1  69  1  0  4  1;
  2  69  1  0  4  1;
  3  69  1  0  4  1;
  4  69  1  0  4  1;
  5  69  1  0  4  1;
  6  13.8  1  0  2  1;
  7  18  1  0  3  1;
  8  13.8  1  0  2  1;
  9  13.8  1  0  2  1;
  10  13.8  1  0  2  1;
  11  13.8  1  0  2  1;
  12  13.8  1  0  2  1;
  13  13.8  1  0  2  1;
 ];

Line.con = [ ... 
  2  5  100  69  60  0  0  0.05695  0.17388  0.034  0  0  0  0  0  1;
  6  11  100  13.8  60  0  0  0.12291  0.25581  0  0  0  0  0  0  1;
  11  12  100  13.8  60  0  0  0.22092  0.19988  0  0  0  0  0  0  1;
  6  12  100  13.8  60  0  0  0.06615  0.13027  0  0  0  0  0  0  1;
  6  10  100  13.8  60  0  0  0.09498  0.1989  0  0  0  0  0  0  1;
  10  9  100  13.8  60  0  0  0.08205  0.19207  0  0  0  0  0  0  1;
  8  9  100  13.8  60  0  0  0.03181  0.0845  0  0  0  0  0  0  1;
  8  13  100  13.8  60  0  0  0.12711  0.27038  0  0  0  0  0  0  1;
  13  12  100  13.8  60  0  0  0.17093  0.34802  0  0  0  0  0  0  1;
  1  2  100  69  60  0  0  0.01938  0.05917  0.0528  0  0  0  0  0  1;
  2  3  100  69  60  0  0  0.04699  0.19797  0.0438  0  0  0  0  0  1;
  3  4  100  69  60  0  0  0.06701  0.17103  0.0346  0  0  0  0  0  1;
  1  5  100  69  60  0  0  0.05403  0.22304  0.0492  0  0  0  0  0  1;
  5  4  100  69  60  0  0  0.01335  0.04211  0.0128  0  0  0  0  0  1;
  2  4  100  69  60  0  0  0.05811  0.17632  0.0374  0  0  0  0  0  1;
  5  6  100  69  60  0  5  0  0.25202  0  0.932  0  0  0  0  1;
  4  8  100  69  60  0  5  0  0.55618  0  0.969  0  0  0  0  1;
 ];

SW.con = [ ... 
  1  100  69  1.06  0  10  -10  1.2  0.8  2.324  1  1  1;
 ];

PV.con = [ ... 
  2  100  69  0.4  1.045  0.5  -0.4  1.2  0.8  1  1;
  6  100  13.8  0  1.07  0.24  -0.06  1.2  0.8  1  1;
  3  100  69  0  1.01  0.4  0  1.2  0.8  1  1;
  7  100  18  0  1.09  0.24  -0.06  1.2  0.8  1  1;
 ];

PQ.con = [ ... 
  10  100  13.8  0.035  0.018  1.2  0.8  0  1;
  12  100  13.8  0.135  0.058  1.2  0.8  0  1;
  3  100  69  0.942  0.19  1.2  0.8  0  1;
  5  100  69  0.076  0.016  1.2  0.8  0  1;
  2  100  69  0.217  0.127  1.2  0.8  0  1;
  6  100  13.8  0.112  0.075  1.2  0.8  0  1;
  4  100  69  0.478  0.04  1.2  0.8  0  1;
  13  100  13.8  0.149  0.05  1.2  0.8  0  1;
  11  100  13.8  0.061  0.016  1.2  0.8  0  1;
  9  100  13.8  0.09  0.058  1.2  0.8  0  1;
  8  100  13.8  0.295  0.166  1.2  0.8  0  1;
 ];

Twt.con = [ ... 
  4  8  7  100  60  69  13.8  18  0  0  0  0.31913  0.38527  0.28616  0.978  0  0  0  0  0  0  0  0  0  1;
 ];

Bus.names = {... 
  'Bus 01'; 'Bus 02'; 'Bus 03'; 'Bus 04'; 'Bus 05'; 
  'Bus 06'; 'Bus 08'; 'Bus 09'; 'Bus 10'; 'Bus 11'; 
  'Bus 12'; 'Bus 13'; 'Bus 14'};

